Master.dss
Clear

New Circuit.DistributionVoltageSource1 Bus1=src_bus.1.2.3 BasekV=21.59804 pu=6.111665688182816 Angle=180.0 Phases=3 Z1=[0.001, 0.001] Z0=[0.001, 0.001]
redirect LoadShape.dss
redirect LineCodes.dss
redirect Transformers.dss
redirect Capacitors.dss
redirect Lines.dss
redirect Loads.dss
redirect Solar.dss
New EnergyMeter.SourceMeter element=Transformer.substation_xfmr
Set Voltagebases=[0.6928000000000001, 21.59804, 0.20784]
calcv
Solve
redirect BusCoords.dss
redirect LineCodes.dss
redirect Loads.dss
redirect Capacitors.dss
redirect Lines.dss
redirect Transformers.dss
redirect LineCodes.dss
redirect Loads.dss
redirect Capacitors.dss
redirect Lines.dss
redirect Transformers.dss
redirect LineCodes.dss
redirect Loads.dss
redirect Capacitors.dss
redirect Lines.dss
redirect Transformers.dss
redirect LineCodes.dss
redirect Loads.dss
redirect Capacitors.dss
redirect Lines.dss
redirect Transformers.dss
