Loads.dss
new Load.load_5 Phases=3 Bus1=bus_5.1.2.3 kV=0.6928000000000001 kW=18.0 Model=8 Conn=wye kvar=7.92 ZIPV=[0.75, 0.10000000000000002, 0.15, 1.0, 0.0, 0.0, 0.0]
new Load.load_7 Phases=3 Bus1=bus_7.1.2.3 kV=0.6928000000000001 kW=24.0 Model=8 Conn=wye kvar=10.56 ZIPV=[0.75, 0.10000000000000002, 0.15, 1.0, 0.0, 0.0, 0.0]
new Load.load_9 Phases=3 Bus1=bus_9.1.2.3 kV=0.6928000000000001 kW=30.0 Model=8 Conn=wye kvar=13.200000000000001 ZIPV=[0.75, 0.1, 0.15, 1.0, 0.0, 0.0, 0.0]
new Load.load_5_Phase.S1 Phases=1 Bus1=split_phase_bus_5.1 kV=0.12 kW=6.0 Model=8 Conn=wye kvar=2.64 ZIPV=[0.75, 0.10000000000000002, 0.15, 1.0, 0.0, 0.0, 0.0]
new Load.load_5_Phase.S2 Phases=1 Bus1=split_phase_bus_5.2 kV=0.12 kW=6.0 Model=8 Conn=wye kvar=2.64 ZIPV=[0.75, 0.10000000000000002, 0.15, 1.0, 0.0, 0.0, 0.0]
new Load.load_7_Phase.S1 Phases=1 Bus1=split_phase_bus_7.1 kV=0.12 kW=8.0 Model=8 Conn=wye kvar=3.52 ZIPV=[0.75, 0.1, 0.15, 1.0, 0.0, 0.0, 0.0]
new Load.load_7_Phase.S2 Phases=1 Bus1=split_phase_bus_7.2 kV=0.12 kW=8.0 Model=8 Conn=wye kvar=3.52 ZIPV=[0.75, 0.1, 0.15, 1.0, 0.0, 0.0, 0.0]
new Load.load_9_Phase.S1 Phases=1 Bus1=split_phase_bus_9.1 kV=0.12 kW=10.0 Model=8 Conn=wye kvar=4.4 ZIPV=[0.75, 0.1, 0.15, 1.0, 0.0, 0.0, 0.0]
new Load.load_9_Phase.S2 Phases=1 Bus1=split_phase_bus_9.2 kV=0.12 kW=10.0 Model=8 Conn=wye kvar=4.4 ZIPV=[0.75, 0.1, 0.15, 1.0, 0.0, 0.0, 0.0]
